Header
  CHECK KEYWORDS Warn
  Mesh DB "." "TANK"
  Include Path ""
  Results Directory ""
End

Simulation
  Max Output Level = 5
  Coordinate System = Cartesian
  Coordinate Scaling = Real 0.001

  Coordinate Mapping(3) = 1 2 3
  Simulation Type = Steady state
  Steady State Max Iterations = 1
  Output Intervals(1) = 1
  Solver Input File = tank.sif
  Post File = ortho_line.vtu
End

Constants
  Gravity(4) = 0 -1 0 9.82
  Stefan Boltzmann = 5.670374419e-08
  Permittivity of Vacuum = 8.85418781e-12
  Permeability of Vacuum = 1.25663706e-6
  Boltzmann Constant = 1.380649e-23
  Unit Charge = 1.6021766e-19
End

Body 1
  Target Bodies(2) = 8 9
  Name = "Body 1"
  Equation = 1
  Material = 1
  Body Force = 1
End


Body 2
  Target Bodies(6) = 2 3 4 5 6 7
  Name = "Body 1"
  Equation = 1
  Material = 1
  Body Force = 2
End

Body 3
  Target Bodies(1) = 1
  Name = "Body 1"
  Equation = 1
  Material = 1
  Body Force = 3
End


Body Force 1
  Name = "BodyForce 1"
  Normal Pressure = 0
End
!ElmerGrid 14 2 TANK.msh -autoclean -merge 1e-12

Body Force 2
  Name = "BodyForce 2"
  Normal Pressure = Variable Coordinate 3
  Real MATC "23000 * (1.0 - tx / 2.50)"
End


Body Force 3
  Name = "BodyForce 3"
   Normal Pressure = Variable Coordinate 3
  Real MATC "-230 * (1.0 - tx / 2.5.0)"
End




Solver 1
  Equation = Shell Equations
  Large Deflection = True
  Procedure = "ShellSolver" "ShellSolver"
  Exec Solver = Always
  Stabilize = True
  Optimize Bandwidth = True
  Steady State Convergence Tolerance = 1.0e-5
  Nonlinear System Convergence Tolerance = 1.0e-7
  Nonlinear System Max Iterations = 20
  Nonlinear System Newton After Iterations = 3
  Nonlinear System Newton After Tolerance = 1.0e-3
  Nonlinear System Relaxation Factor = 1
!  Linear System Solver = Iterative
!  Linear System Iterative Method = BiCGStab
  Linear System Solver = Direct
  Linear System Iterative Method = MUMPS
  
  Linear System Max Iterations = 5000
  Linear System Convergence Tolerance = 1.0e-10
  BiCGstabl polynomial degree = 2
  Linear System Preconditioning = ILU0
  Linear System ILUT Tolerance = 1.0e-3
  Linear System Abort Not Converged = False
  Linear System Residual Output = 10
  Linear System Precondition Recompute = 1
End

Equation 1
  Name = "Equation 1"
  Active Solvers(1) = 1
End

Material 1
  Name = "pp"
  Shell Thickness = 0.050
  Youngs modulus = 250e06
  Poisson ratio = 0.4
  Heat Capacity = 1265.0
  Sound speed = 5100.0
  Heat Conductivity = 44.8
  Density = 7850.0
  Heat expansion Coefficient = 13.8e-6
End


Material 2
  Name = "pp"
  Shell Thickness = 0.012
  Youngs modulus = 2.50e09
  Poisson ratio = 0.3
  Heat Capacity = 1265.0
  Sound speed = 5100.0
  Heat Conductivity = 44.8
  Density = 7850.0
  Heat expansion Coefficient = 13.8e-6
End


Boundary Condition 1
  Target Boundaries(7) = 3 5 10 15 19 20 24
  Name = "BoundaryCondition 1"
  U 1 = 0
  DNU 2 = 0
  U 3 = 0
 DNU 1 = 0
  U 2 = 0
 DNU 3 = 0
End


Boundary Condition 2
 Name = "BoundaryCondition 2"

Target Nodes(1256) = 3058 3041 2322 2316 1522 1517 3828 3827 6166 6165 6956 6955 3055 3012 2323 2332 1574 1572 3850 3821 6139 6138 6949 6947 3062 3065 2344 2326 1550 1547 3848 3823 6172 6171 6935 6934 3059 3069 2342 2294 1519 1581 3811 3830 6128 6127 6915 6914 503 8697 143 8338 211 8392 308 8514 14 759 961 1145 1319 1500 1636 1780 1882 2032 2098 2205 2332 2460 2556 2685 2782 2910 3012 3143 3240 33

  U 1 = 0
!  DNU 2 = 0
  U 3 = 0
! DNU 1 = 0
  U 2 = 0
! DNU 3 = 0
End

